*SPEF "IEEE 1481-1998"
*DESIGN "dvsd_cmp"
*DATE "Fri Aug 20 12:14:13 2021"
*VENDOR "AUC CSCE Department"
*PROGRAM "SPEF Extractor"
*VERSION "1.0"
*DESIGN_FLOW "PIN_CAP NONE"
*DIVIDER /
*DELIMITER :
*BUS_DELIMITER []
*T_UNIT 1.00000 NS
*C_UNIT 1.00000 PF
*R_UNIT 1.00000 OHM
*L_UNIT 1.00000 HENRY


*NAME_MAP
*0 A_in[0]
*1 A_in[1]
*2 A_in[2]
*3 A_in[3]
*4 B_in[0]
*5 B_in[1]
*6 B_in[2]
*7 B_in[3]
*8 _00_
*9 _01_
*10 _02_
*11 _03_
*12 _04_
*13 _05_
*14 _06_
*15 _07_
*16 _08_
*17 _09_
*18 _10_
*19 _11_
*20 equal_to
*21 greater_than
*22 less_than
*23 net1
*24 net10
*25 net11
*26 net2
*27 net3
*28 net4
*29 net5
*30 net6
*31 net7
*32 net8
*33 net9

*D_NET *0 0.0008071757741199999
*CONN
*P A_in[0] I
*I input1:A I
*CAP
0 *0:1 0.0003596407917
1 *0:3 0.00044753498242
2 *0:4 0
3 input1:A 0
*RES
0 *0:1 *0:2 0.6125666666666667
1 *0:3 *0:4 5.008928571428571
2 *0:4 *0:2 0
3 input1:A input1:A 0
4 input1:A *0:3 0
*END

*D_NET *1 0.00144153145756
*CONN
*P A_in[1] I
*I input2:A I
*CAP
4 *1:1 0.0009242213050600002
5 *1:3 0.0005173101524999999
6 input2:A 0
*RES
5 *1:1 *1:2 10.473214285714285
6 *1:3 *1:4 0.9008333333333334
7 *1:1 *1:3 0
8 input2:A input2:A 0
9 input2:A *1:2 0
*END

*D_NET *2 0.00125548086466
*CONN
*P A_in[2] I
*I input3:A I
*CAP
7 *2:1 0.00065939557026
8 *2:3 0.0005960852944
9 input3:A 0
*RES
10 *2:1 *2:2 7.437499999999999
11 *2:3 input3:A 6.160714285714286
12 *2:3 *2:2 0
13 input3:A input3:A 0
*END

*D_NET *3 0.00106502456742
*CONN
*P A_in[3] I
*I input4:A I
*CAP
10 input4:A 0.00016728583584
11 *3:2 0.0008977387315800001
12 *3:1 0
*RES
14 input4:A *3:1 1.6428571428571428
15 *3:2 *3:3 10.169642857142856
16 input4:A input4:A 0
17 *3:1 *3:2 0
*END

*D_NET *4 0.00070973609922
*CONN
*P B_in[0] I
*I input5:A I
*CAP
13 *4:1 0.00065939557026
14 input5:A 5.034052896000001e-05
15 *4:3 0
*RES
18 *4:1 *4:2 7.437499999999999
19 input5:A *4:3 0.4107142857142857
20 *4:3 *4:2 0
21 input5:A input5:A 0
*END

*D_NET *5 0.00054235003932
*CONN
*P B_in[1] I
*I input6:A I
*CAP
16 *5:1 0.0003596407917
17 *5:3 0.00018270924762000003
18 input6:A 0
*RES
22 *5:1 *5:2 0.6125666666666667
23 *5:3 *5:4 1.9732142857142856
24 *5:3 *5:2 0
25 input6:A input6:A 0
26 input6:A *5:4 0
*END

*D_NET *6 0.00107077542884
*CONN
*P B_in[2] I
*I input7:A I
*CAP
19 *6:1 0.00055346527634
20 *6:3 0.0005173101524999999
21 input7:A 0
22 *6:2 0
*RES
27 *6:1 *6:2 6.223214285714285
28 *6:3 *6:4 0.9008333333333334
29 input7:A input7:A 0
30 input7:A *6:1 0
31 *6:2 *6:3 0
*END

*D_NET *7 0.00070973609922
*CONN
*P B_in[3] I
*I input8:A I
*CAP
23 *7:1 0.00065939557026
24 *7:3 5.034052896000001e-05
25 input8:A 0
*RES
32 *7:1 *7:2 7.437499999999999
33 *7:3 input8:A 0.4107142857142857
34 *7:3 *7:2 0
35 input8:A input8:A 0
*END

*D_NET *8 0.0008170338086
*CONN
*I _16_:A2 I
*I _15_:A2 I
*I _14_:B I
*I _12_:Y O
*CAP
26 _14_:B 0.00010068105792
27 *8:2 0.00020745720768000002
28 *8:3 0.00024891568132000004
29 *8:5 4.017137184e-05
30 *8:6 5.034052896000001e-05
31 *8:4 0.00016946796088000002
32 _12_:Y 0
33 _16_:A2 0
34 _15_:A2 0
*RES
36 _14_:B *8:1 0.7767857142857142
37 *8:2 *8:1 0.30357142857142855
38 *8:2 _12_:Y 1.6428571428571428
39 *8:3 *8:4 2.7321428571428568
40 _14_:B _14_:B 0.044642857142857144
41 *8:5 _15_:A2 0.30357142857142855
42 *8:6 *8:5 0.4107142857142857
43 *8:4 *8:7 1.8214285714285714
44 _14_:B _14_:B 0
45 _12_:Y _12_:Y 0
46 _16_:A2 _16_:A2 0
47 _16_:A2 *8:4 0
48 _14_:B *8:3 0
49 _15_:A2 _15_:A2 0
50 *8:6 *8:7 0
*END

*D_NET *9 0.00053349057108
*CONN
*I _15_:B2 I
*I _13_:Y O
*CAP
35 *9:1 8.932229792e-05
36 *9:2 0.00035484597524
37 *9:4 8.932229792e-05
38 _15_:B2 0
39 _13_:Y 0
*RES
51 *9:1 _15_:B2 0.8214285714285714
52 *9:2 *9:3 3.946428571428571
53 *9:4 _13_:Y 0.8214285714285714
54 _15_:B2 _15_:B2 0
55 *9:1 *9:2 0
56 *9:4 *9:3 0
57 _13_:Y _13_:Y 0
*END

*D_NET *10 0.000600095349
*CONN
*I _15_:C1 I
*I _14_:Y O
*CAP
40 *10:1 0.00035484597524
41 _14_:Y 0.00024524937376
42 _15_:C1 0
43 *10:3 0
*RES
58 *10:1 *10:2 3.946428571428571
59 _14_:Y *10:3 2.464285714285714
60 _15_:C1 _15_:C1 0
61 _15_:C1 *10:2 0
62 *10:3 *10:1 0
63 _14_:Y _14_:Y 0
*END

*D_NET *11 0.00045834355008000005
*CONN
*I _25_:B1 I
*I _16_:B1_N I
*I _15_:X O
*CAP
44 *11:1 0.00016946796088000002
45 _25_:B1 1.34773344e-05
46 *11:3 0.0002753982548
47 _15_:X 0
48 _16_:B1_N 0
*RES
64 *11:1 *11:2 1.8214285714285714
65 _25_:B1 _25_:B1 0.022321428571428572
66 *11:3 *11:1 3.035714285714285
67 _15_:X _15_:X 0
68 _15_:X *11:1 0
69 _25_:B1 *11:2 0
70 _25_:B1 _25_:B1 0
71 _16_:B1_N _16_:B1_N 0
72 _16_:B1_N *11:3 0
*END

*D_NET *12 0.00031027122324
*CONN
*I _23_:A1 I
*I _16_:X O
*CAP
49 *12:1 0.00016728583584
50 *12:2 0.00014298538739999998
51 _16_:X 0
52 _23_:A1 0
*RES
73 *12:1 _16_:X 1.6428571428571428
74 *12:2 *12:3 1.5178571428571426
75 _16_:X _16_:X 0
76 *12:1 *12:2 0
77 _23_:A1 _23_:A1 0
78 _23_:A1 *12:3 0
*END

*D_NET *13 0.0011285609573600001
*CONN
*I _22_:B I
*I _20_:A2 I
*I _19_:A2 I
*I _17_:Y O
*CAP
53 _20_:A2 0.0002062676048
54 *13:2 0.00014298538739999998
55 _19_:A2 0.000307959176
56 *13:3 0.00022243310784000002
57 *13:6 0.00024891568132000004
58 *13:1 0
59 _17_:Y 0
60 *13:4 0
61 _22_:B 0
62 *13:8 0
*RES
79 _20_:A2 *13:1 2.0535714285714284
80 *13:2 *13:3 1.5178571428571426
81 _19_:A2 *13:4 3.1249999999999996
82 *13:3 *13:5 2.4285714285714284
83 *13:6 *13:7 2.7321428571428568
84 _20_:A2 _20_:A2 0
85 *13:1 *13:3 0
86 _17_:Y _17_:Y 0
87 _17_:Y *13:2 0
88 _19_:A2 _19_:A2 0
89 *13:4 *13:5 0
90 _22_:B _22_:B 0
91 _22_:B *13:7 0
92 *13:8 *13:6 0
*END

*D_NET *14 0.0011329967608
*CONN
*I _20_:B1 I
*I _19_:B1 I
*I _18_:Y O
*CAP
63 *14:1 0.00024643897664
64 *14:3 0.00043429369568000003
65 *14:5 0.0002062676048
66 _20_:B1 4.017137184e-05
67 *14:6 8.932229792e-05
68 *14:8 0.00011650281392
69 _19_:B1 0
70 *14:2 0
71 _18_:Y 0
72 *14:7 0
*RES
93 *14:1 _19_:B1 0.30357142857142855
94 *14:1 *14:2 2.0535714285714284
95 *14:3 *14:4 4.857142857142857
96 *14:5 _18_:Y 2.0535714285714284
97 _20_:B1 *14:6 0.30357142857142855
98 *14:6 *14:7 0.8214285714285714
99 *14:8 *14:3 1.2142857142857142
100 _19_:B1 _19_:B1 0
101 *14:2 *14:3 0
102 *14:5 *14:4 0
103 _18_:Y _18_:Y 0
104 _20_:B1 _20_:B1 0
105 *14:7 *14:8 0
*END

*D_NET *15 0.0007644619871999999
*CONN
*I _23_:B1 I
*I _20_:C1 I
*I _19_:Y O
*CAP
73 _19_:Y 0.00045151697855999996
74 _23_:B1 4.017137184e-05
75 *15:2 5.034052896000001e-05
76 *15:3 0.00022243310784000002
77 _20_:C1 0
*RES
106 _19_:Y *15:1 4.107142857142857
107 _23_:B1 *15:1 0.30357142857142855
108 *15:2 _20_:C1 0.4107142857142857
109 *15:3 *15:4 2.4285714285714284
110 _19_:Y _19_:Y 0.4107142857142857
111 _19_:Y _19_:Y 0
112 _23_:B1 _23_:B1 0
113 _20_:C1 _20_:C1 0
114 *15:2 *15:3 0
115 _19_:Y *15:4 0
*END

*D_NET *16 0.0007938637583199999
*CONN
*I _25_:C1 I
*I _21_:A I
*I _20_:X O
*CAP
78 *16:1 0.00012830406688
79 *16:2 0.00038132854871999994
80 _21_:A 0.00028423114272
81 _20_:X 0
82 _25_:C1 0
*RES
116 *16:1 _21_:A 1.232142857142857
117 *16:2 *16:3 4.249999999999999
118 _21_:A _25_:C1 2.875
119 _21_:A _21_:A 0
120 *16:1 *16:3 0
121 _20_:X _20_:X 0
122 _20_:X *16:2 0
123 _25_:C1 _25_:C1 0
*END

*D_NET *17 0.00038561014316
*CONN
*I _23_:A2 I
*I _21_:Y O
*CAP
83 _23_:A2 0.00012830406688
84 *17:2 9.002024044000002e-05
85 _21_:Y 0.00016728583584
86 *17:1 0
87 *17:4 0
*RES
124 _23_:A2 *17:1 1.232142857142857
125 *17:2 *17:3 0.9107142857142857
126 _21_:Y *17:4 1.6428571428571428
127 _23_:A2 _23_:A2 0
128 *17:1 *17:2 0
129 *17:4 *17:3 0
130 _21_:Y _21_:Y 0
*END

*D_NET *18 0.00037573556568
*CONN
*I _23_:B2 I
*I _22_:Y O
*CAP
88 *18:1 0.00016946796088000002
89 _22_:Y 0.0002062676048
90 _23_:B2 0
91 *18:3 0
*RES
131 *18:1 *18:2 1.8214285714285714
132 _22_:Y *18:3 2.0535714285714284
133 _23_:B2 _23_:B2 0
134 _23_:B2 *18:1 0
135 *18:3 *18:2 0
136 _22_:Y _22_:Y 0
*END

*D_NET *19 0.00063625666624
*CONN
*I _25_:A1 I
*I _24_:Y O
*CAP
92 _25_:A1 4.017137184e-05
93 *19:1 0.0005960852944
94 _24_:Y 0
*RES
137 _25_:A1 *19:1 0.30357142857142855
138 *19:1 _24_:Y 6.160714285714286
139 _25_:A1 _25_:A1 0
140 _24_:Y _24_:Y 0
*END

*D_NET *20 0.00105104118942
*CONN
*P equal_to O
*I output9:X O
*CAP
95 *20:1 0.0002062676048
96 *20:2 0.0008447735846200001
97 output9:X 0
*RES
141 *20:1 output9:X 2.0535714285714284
142 *20:2 *20:3 9.5625
143 output9:X output9:X 0
144 *20:1 *20:2 0
*END

*D_NET *21 0.0011243400063800002
*CONN
*P greater_than O
*I output10:X O
*CAP
98 output10:X 5.034052896000001e-05
99 *21:2 0.00081829101114
100 *21:4 8.223124824000001e-05
101 *21:5 6.353766696000002e-05
102 *21:6 0.00010993955108000003
103 *21:1 0
*RES
145 output10:X *21:1 0.4107142857142857
146 *21:2 *21:3 9.25892857142857
147 *21:4 *21:3 0.8214285714285714
148 *21:5 *21:4 0.6071428571428571
149 *21:6 *21:5 0.4107142857142857
150 *21:6 *21:7 0.6071428571428571
151 output10:X output10:X 0
152 *21:1 *21:2 0
*END

*D_NET *22 0.00058054129944
*CONN
*P less_than O
*I output11:X O
*CAP
104 *22:1 2.3813806740000006e-05
105 *22:3 0.0005567274927
106 output11:X 0
*RES
153 *22:1 *22:2 0.15178571428571427
154 *22:3 *22:4 0.9729000000000001
155 output11:X output11:X 0
156 output11:X *22:2 0
157 *22:1 *22:3 0
*END

*D_NET *23 0.00329000794924
*CONN
*I input1:X O
*I _15_:B1 I
*I _24_:A I
*CAP
107 _15_:B1 6.898398368e-05
108 *23:2 0.00028423114272
109 *23:3 0.0009639451652800001
110 *23:5 0.00040117644959999997
111 *23:6 0.00019595053436
112 input1:X 0.0013757206736000002
113 *23:8 0
114 _24_:A 0
115 *23:1 0
*RES
158 _15_:B1 *23:1 0.6071428571428571
159 *23:2 *23:1 2.875
160 *23:3 *23:4 10.928571428571427
161 *23:5 _24_:A 4.107142857142857
162 *23:6 *23:7 2.1249999999999996
163 input1:X *23:8 14.375
164 input1:X input1:X 0
165 _15_:B1 _15_:B1 0
166 *23:2 *23:3 0
167 *23:8 *23:4 0
168 _24_:A _24_:A 0
169 *23:5 *23:7 0
170 *23:1 *23:6 0
*END

*D_NET *24 0.0008024251064
*CONN
*I output10:A I
*I _26_:Y O
*CAP
116 _26_:Y 5.034052896000001e-05
117 *24:2 0.00075208457744
118 *24:1 0
119 output10:A 0
*RES
171 _26_:Y *24:1 0.4107142857142857
172 *24:2 *24:3 8.499999999999998
173 _26_:Y _26_:Y 0
174 *24:1 *24:2 0
175 output10:A output10:A 0
176 output10:A *24:3 0
*END

*D_NET *25 0.00175858257224
*CONN
*I output11:A I
*I _23_:X O
*I _26_:A I
*CAP
120 _23_:X 0.00067404883232
121 *25:1 4.017137184e-05
122 *25:2 0.00055710352544
123 *25:3 0.00048725884264
124 output11:A 0
125 _26_:A 0
126 *25:5 0
*RES
177 _23_:X *25:1 6.982142857142857
178 *25:1 *25:2 0.30357142857142855
179 *25:2 output11:A 5.75
180 *25:3 *25:4 5.4642857142857135
181 _23_:X _23_:X 0
182 output11:A output11:A 0
183 _26_:A _26_:A 0
184 _26_:A *25:4 0
185 *25:5 *25:3 0
*END

*D_NET *26 0.0007170406558799999
*CONN
*I input2:X O
*I _12_:A I
*CAP
127 *26:1 0.0003621946806399999
128 *26:2 0.00035484597524
129 input2:X 0
130 _12_:A 0
*RES
186 *26:1 input2:X 3.6964285714285707
187 *26:2 *26:3 3.946428571428571
188 input2:X input2:X 0
189 *26:1 *26:2 0
190 _12_:A _12_:A 0
191 _12_:A *26:3 0
*END

*D_NET *27 0.0015154557076799999
*CONN
*I input3:X O
*I _19_:B2 I
*I _20_:B2 I
*CAP
131 input3:X 0.0005181217564799999
132 *27:2 0.00024524937376
133 *27:3 0.00075208457744
134 *27:1 0
135 _19_:B2 0
136 _20_:B2 0
*RES
192 input3:X *27:1 5.339285714285714
193 *27:2 _20_:B2 2.464285714285714
194 *27:3 *27:4 8.499999999999998
195 *27:1 *27:3 0
196 input3:X input3:X 0
197 _19_:B2 _19_:B2 0
198 _19_:B2 *27:4 0
199 _20_:B2 _20_:B2 0
200 *27:2 *27:5 0
*END

*D_NET *28 0.00341974662012
*CONN
*I input4:X O
*I _19_:A1 I
*I _20_:A1 I
*I _22_:A I
*CAP
137 *28:1 0.0005582931283199999
138 *28:3 0.00050914220224
139 *28:5 0.0010698754592
140 *28:7 0.00044015821855999997
141 *28:8 0.00024891568132000004
142 *28:10 0.00016728583584
143 *28:11 5.034052896000001e-05
144 *28:12 0.00016946796088000002
145 _19_:A1 0.0002062676048
146 _22_:A 0
147 *28:4 0
148 input4:X 0
149 _20_:A1 0
150 *28:14 0
*RES
201 *28:1 _22_:A 0.30357142857142855
202 *28:1 *28:2 5.339285714285714
203 *28:3 *28:2 0.6071428571428571
204 *28:3 *28:4 4.517857142857142
205 *28:5 *28:6 12.14285714285714
206 *28:7 input4:X 4.517857142857142
207 *28:8 *28:9 2.7321428571428568
208 *28:10 *28:1 1.6428571428571428
209 *28:11 _20_:A1 0.4107142857142857
210 *28:12 *28:13 1.8214285714285714
211 _19_:A1 *28:14 2.0535714285714284
212 _22_:A _22_:A 0
213 *28:4 *28:5 0
214 *28:7 *28:6 0
215 input4:X input4:X 0
216 _19_:A1 _19_:A1 0
217 _19_:A1 *28:8 0
218 *28:10 *28:9 0
219 _20_:A1 _20_:A1 0
220 *28:11 *28:12 0
221 *28:14 *28:13 0
*END

*D_NET *29 0.0017849734824400003
*CONN
*I input5:X O
*I _13_:A I
*I _25_:A2 I
*CAP
151 *29:1 6.898398368e-05
152 *29:2 1.2629904640000002e-05
153 *29:3 0.0009639451652800001
154 *29:5 0.00028423114272
155 *29:6 0.0002062676048
156 *29:4 0.00024891568132000004
157 _25_:A2 0
158 input5:X 0
159 _13_:A 0
*RES
222 *29:1 _25_:A2 0.6071428571428571
223 *29:2 *29:1 0.01339285714285714
224 *29:3 *29:4 10.928571428571427
225 *29:5 input5:X 2.875
226 *29:6 _13_:A 2.0535714285714284
227 *29:4 *29:7 2.7321428571428568
228 _25_:A2 _25_:A2 0
229 *29:2 *29:4 0
230 *29:5 *29:3 0
231 input5:X input5:X 0
232 _13_:A _13_:A 0
233 *29:6 *29:7 0
*END

*D_NET *30 0.00223669090752
*CONN
*I input6:X O
*I _14_:A I
*I _15_:A1 I
*I _16_:A1 I
*CAP
160 *30:1 0.00031423335744000004
161 _16_:A1 4.017137184e-05
162 *30:4 0.00012830406688
163 *30:5 0.00016946796088000002
164 _14_:A 5.034052896000001e-05
165 *30:8 0.0002753982548
166 input6:X 0.00125877536672
167 _15_:A1 0
168 *30:7 0
*RES
234 *30:1 _15_:A1 2.464285714285714
235 *30:1 *30:2 0.6071428571428571
236 _16_:A1 *30:3 0.30357142857142855
237 *30:4 *30:3 1.232142857142857
238 *30:5 *30:6 1.8214285714285714
239 _14_:A *30:7 0.4107142857142857
240 *30:8 *30:5 3.035714285714285
241 input6:X *30:2 13.142857142857142
242 input6:X input6:X 0
243 _15_:A1 _15_:A1 0
244 _16_:A1 _16_:A1 0
245 *30:4 *30:5 0
246 _15_:A1 *30:6 0
247 _14_:A _14_:A 0
248 *30:7 *30:8 0
*END

*D_NET *31 0.00174870799476
*CONN
*I input7:X O
*I _18_:A I
*CAP
169 _18_:A 4.017137184e-05
170 *31:1 0.00114183005984
171 *31:3 0.00056670656308
172 *31:2 0
173 input7:X 0
*RES
249 _18_:A *31:1 0.30357142857142855
250 *31:1 *31:2 11.910714285714285
251 *31:3 *31:4 6.374999999999999
252 _18_:A _18_:A 0
253 *31:2 *31:3 0
254 input7:X input7:X 0
255 input7:X *31:4 0
*END

*D_NET *32 0.000600095349
*CONN
*I input8:X O
*I _17_:A I
*CAP
174 input8:X 0.00024524937376
175 *32:2 0.00035484597524
176 *32:1 0
177 _17_:A 0
*RES
256 input8:X *32:1 2.464285714285714
257 *32:2 *32:3 3.946428571428571
258 input8:X input8:X 0
259 *32:1 *32:2 0
260 _17_:A _17_:A 0
261 _17_:A *32:3 0
*END

*D_NET *33 0.0026123399323200003
*CONN
*I output9:A I
*I _25_:X O
*I _26_:B I
*CAP
178 _26_:B 5.034052896000001e-05
179 *33:2 5.029638022e-05
180 *33:3 4.640188412000001e-05
181 *33:4 0.00081829101114
182 *33:6 0.0003621946806399999
183 *33:7 0.00014298538739999998
184 output9:A 0.00114183005984
185 *33:1 0
186 *33:8 0
187 _25_:X 0
*RES
262 _26_:B *33:1 0.4107142857142857
263 *33:2 *33:3 0.45535714285714285
264 *33:3 *33:4 0.4107142857142857
265 *33:4 *33:5 9.25892857142857
266 *33:6 _25_:X 3.6964285714285707
267 *33:7 *33:2 1.5178571428571426
268 output9:A *33:8 11.910714285714285
269 output9:A output9:A 0
270 _26_:B _26_:B 0
271 *33:1 *33:2 0
272 *33:8 *33:5 0
273 _25_:X _25_:X 0
274 *33:6 *33:7 0
*END

